<?xml version="1.0" encoding="UTF-8"?>

<!-- generated on 2022-04-11 11:09:49 by Eclipse SUMO netedit Version 1.12.0
<configuration xmlns:xsi="http://www.w3.org/2001/XMLSchema-instance" xsi:noNamespaceSchemaLocation="http://sumo.dlr.de/xsd/netconvertConfiguration.xsd">

    <input>
        <sumo-net-file value="D:\Repos\v2\Driving%20in%20Circles\circles.net.xml"/>
    </input>

    <output>
        <output-file value="D:\Repos\v2\Driving%20in%20Circles\circles.net.xml"/>
    </output>

    <processing>
        <geometry.min-radius.fix.railways value="false"/>
        <geometry.max-grade.fix value="false"/>
        <offset.disable-normalization value="true"/>
        <lefthand value="false"/>
    </processing>

    <junctions>
        <no-turnarounds value="true"/>
        <junctions.corner-detail value="5"/>
        <junctions.limit-turn-speed value="5.5"/>
        <rectangular-lane-cut value="false"/>
    </junctions>

    <pedestrian>
        <walkingareas value="false"/>
    </pedestrian>

    <netedit>
        <additional-files value="D:\Repos\v2\Driving%20in%20Circles\circles.add.xml"/>
        <route-files value="D:\Repos\v2\Driving%20in%20Circles\circles.rou.xml"/>
    </netedit>

    <report>
        <aggregate-warnings value="5"/>
    </report>

</configuration>
-->

<additional xmlns:xsi="http://www.w3.org/2001/XMLSchema-instance" xsi:noNamespaceSchemaLocation="http://sumo.dlr.de/xsd/additional_file.xsd">
    <rerouter id="edge2" edges="edge2" pos="-17.44,27.95">
        <interval begin="0.00" end="3600.00">
            <destProbReroute id="edge1" probability="1.00"/>
        </interval>
    </rerouter>
    <rerouter id="rr_0" edges="edge1" pos="-0.99,60.27">
        <interval begin="0.00" end="3600.00">
            <destProbReroute id="edge2" probability="1.00"/>
        </interval>
    </rerouter>
</additional>
