<?xml version="1.0" encoding="UTF-8"?>

<!-- generated on 2022-04-11 11:01:02 by Eclipse SUMO netedit Version 1.12.0
-->

<routes xmlns:xsi="http://www.w3.org/2001/XMLSchema-instance" xsi:noNamespaceSchemaLocation="http://sumo.dlr.de/xsd/routes_file.xsd">
    <route id="route_0" edges="edge1 E2 E3 E4 E5 E6 E7 edge2"/>
    <flow id="flow_0" begin="0.00" route="route_0" end="0.00" number="5"/>
</routes>
