<?xml version="1.0" encoding="UTF-8"?>

<!-- generated on 2022-04-11 10:17:39 by Eclipse SUMO netedit Version 1.12.0
<configuration xmlns:xsi="http://www.w3.org/2001/XMLSchema-instance" xsi:noNamespaceSchemaLocation="http://sumo.dlr.de/xsd/netconvertConfiguration.xsd">

    <output>
        <output-file value="D:\Repos\v2\Driving%20in%20Circles\circles.net.xml"/>
    </output>

    <processing>
        <offset.disable-normalization value="true"/>
    </processing>

    <junctions>
        <no-turnarounds value="true"/>
    </junctions>

    <report>
        <aggregate-warnings value="5"/>
    </report>

</configuration>
-->

<net version="1.9" junctionCornerDetail="5" limitTurnSpeed="5.50" xmlns:xsi="http://www.w3.org/2001/XMLSchema-instance" xsi:noNamespaceSchemaLocation="http://sumo.dlr.de/xsd/net_file.xsd">

    <location netOffset="0.00,0.00" convBoundary="-26.19,-32.89,143.88,91.82" origBoundary="10000000000.00,10000000000.00,-10000000000.00,-10000000000.00" projParameter="!"/>

    <edge id=":J10_0" function="internal">
        <lane id=":J10_0_0" index="0" speed="4.27" length="1.20" shape="81.84,-30.89 81.52,-31.05 81.28,-31.13 81.03,-31.12 80.69,-31.05"/>
    </edge>
    <edge id=":J11_0" function="internal">
        <lane id=":J11_0_0" index="0" speed="13.89" length="0.88" shape="25.30,-17.63 25.05,-17.57 24.88,-17.50 24.74,-17.39 24.55,-17.22"/>
    </edge>
    <edge id=":J4_0" function="internal">
        <lane id=":J4_0_0" index="0" speed="3.91" length="2.38" shape="-23.03,29.87 -23.42,30.38 -23.57,30.91 -23.48,31.45 -23.15,32.00"/>
    </edge>
    <edge id=":J5_0" function="internal">
        <lane id=":J5_0_0" index="0" speed="13.89" length="0.83" shape="6.49,69.30 6.65,69.49 6.77,69.60 6.92,69.69 7.14,69.79"/>
    </edge>
    <edge id=":J6_0" function="internal">
        <lane id=":J6_0_0" index="0" speed="4.39" length="1.06" shape="56.64,89.93 56.93,90.04 57.14,90.09 57.36,90.07 57.66,90.00"/>
    </edge>
    <edge id=":J7_0" function="internal">
        <lane id=":J7_0_0" index="0" speed="4.37" length="1.09" shape="112.49,75.11 112.80,75.02 113.00,74.92 113.16,74.77 113.36,74.52"/>
    </edge>
    <edge id=":J8_0" function="internal">
        <lane id=":J8_0_0" index="0" speed="4.05" length="1.59" shape="141.56,36.35 141.77,35.99 141.87,35.62 141.88,35.24 141.78,34.84"/>
    </edge>
    <edge id=":J9_0" function="internal">
        <lane id=":J9_0_0" index="0" speed="4.30" length="1.16" shape="126.81,-5.71 126.69,-6.03 126.56,-6.23 126.38,-6.38 126.08,-6.56"/>
    </edge>

    <edge id="E2" from="J5" to="J6" priority="-1">
        <lane id="E2_0" index="0" speed="13.89" length="53.44" shape="7.14,69.79 56.64,89.93"/>
    </edge>
    <edge id="E3" from="J6" to="J7" priority="-1">
        <lane id="E3_0" index="0" speed="13.89" length="56.82" shape="57.66,90.00 112.49,75.11"/>
    </edge>
    <edge id="E4" from="J7" to="J8" priority="-1">
        <lane id="E4_0" index="0" speed="13.89" length="47.46" shape="113.36,74.52 141.56,36.35"/>
    </edge>
    <edge id="E5" from="J8" to="J9" priority="-1">
        <lane id="E5_0" index="0" speed="13.89" length="43.22" shape="141.78,34.84 126.81,-5.71"/>
    </edge>
    <edge id="E6" from="J9" to="J10" priority="-1">
        <lane id="E6_0" index="0" speed="13.89" length="50.50" shape="126.08,-6.56 81.84,-30.89"/>
    </edge>
    <edge id="E7" from="J10" to="J11" priority="-1">
        <lane id="E7_0" index="0" speed="13.89" length="56.99" shape="80.69,-31.05 25.30,-17.63"/>
    </edge>
    <edge id="edge1" from="J4" to="J5" priority="-1">
        <lane id="edge1_0" index="0" speed="13.89" length="47.64" shape="-23.15,32.00 6.49,69.30"/>
    </edge>
    <edge id="edge2" from="J11" to="J4" priority="-1">
        <lane id="edge2_0" index="0" speed="13.89" length="66.94" shape="24.55,-17.22 -23.03,29.87"/>
    </edge>

    <junction id="J10" type="priority" x="81.52" y="-32.89" incLanes="E6_0" intLanes=":J10_0_0" shape="81.06,-29.49 82.61,-32.30 81.81,-32.68 81.50,-32.76 81.18,-32.77 80.80,-32.71 80.31,-32.60">
        <request index="0" response="0" foes="0" cont="0"/>
    </junction>
    <junction id="J11" type="priority" x="24.06" y="-18.98" incLanes="E7_0" intLanes=":J11_0_0" shape="25.67,-16.08 24.92,-19.19 24.30,-19.02 24.09,-18.92 23.90,-18.79 23.69,-18.61 23.42,-18.35">
        <request index="0" response="0" foes="0" cont="0"/>
    </junction>
    <junction id="J4" type="priority" x="-26.19" y="30.75" incLanes="edge2_0" intLanes=":J4_0_0" shape="-24.41,33.00 -21.90,31.01 -24.15,28.73 -25.09,30.11 -25.24,30.81 -25.17,31.53 -24.90,32.26">
        <request index="0" response="0" foes="0" cont="0"/>
    </junction>
    <junction id="J5" type="priority" x="5.76" y="70.95" incLanes="edge1_0" intLanes=":J5_0_0" shape="6.54,71.27 7.74,68.30 5.24,70.30 5.63,70.76 5.79,70.90 5.98,71.02 6.21,71.13">
        <request index="0" response="0" foes="0" cont="0"/>
    </junction>
    <junction id="J6" type="priority" x="57.04" y="91.82" incLanes="E2_0" intLanes=":J6_0_0" shape="58.08,91.54 57.24,88.45 56.04,91.42 56.77,91.68 57.04,91.72 57.32,91.71 57.65,91.65">
        <request index="0" response="0" foes="0" cont="0"/>
    </junction>
    <junction id="J7" type="priority" x="113.99" y="76.36" incLanes="E3_0" intLanes=":J7_0_0" shape="114.65,75.47 112.07,73.57 112.91,76.65 113.67,76.41 113.93,76.27 114.15,76.09 114.37,75.83">
        <request index="0" response="0" foes="0" cont="0"/>
    </junction>
    <junction id="J8" type="priority" x="143.88" y="35.91" incLanes="E4_0" intLanes=":J8_0_0" shape="143.28,34.29 140.28,35.39 142.85,37.30 143.35,36.34 143.47,35.85 143.50,35.34 143.43,34.82">
        <request index="0" response="0" foes="0" cont="0"/>
    </junction>
    <junction id="J9" type="priority" x="127.90" y="-7.38" incLanes="E5_0" intLanes=":J9_0_0" shape="125.31,-5.16 128.31,-6.26 127.98,-7.05 127.81,-7.30 127.58,-7.51 127.28,-7.72 126.85,-7.96">
        <request index="0" response="0" foes="0" cont="0"/>
    </junction>

    <connection from="E2" to="E3" fromLane="0" toLane="0" via=":J6_0_0" dir="s" state="M"/>
    <connection from="E3" to="E4" fromLane="0" toLane="0" via=":J7_0_0" dir="s" state="M"/>
    <connection from="E4" to="E5" fromLane="0" toLane="0" via=":J8_0_0" dir="r" state="M"/>
    <connection from="E5" to="E6" fromLane="0" toLane="0" via=":J9_0_0" dir="s" state="M"/>
    <connection from="E6" to="E7" fromLane="0" toLane="0" via=":J10_0_0" dir="s" state="M"/>
    <connection from="E7" to="edge2" fromLane="0" toLane="0" via=":J11_0_0" dir="s" state="M"/>
    <connection from="edge1" to="E2" fromLane="0" toLane="0" via=":J5_0_0" dir="s" state="M"/>
    <connection from="edge2" to="edge1" fromLane="0" toLane="0" via=":J4_0_0" dir="r" state="M"/>

    <connection from=":J10_0" to="E7" fromLane="0" toLane="0" dir="s" state="M"/>
    <connection from=":J11_0" to="edge2" fromLane="0" toLane="0" dir="s" state="M"/>
    <connection from=":J4_0" to="edge1" fromLane="0" toLane="0" dir="r" state="M"/>
    <connection from=":J5_0" to="E2" fromLane="0" toLane="0" dir="s" state="M"/>
    <connection from=":J6_0" to="E3" fromLane="0" toLane="0" dir="s" state="M"/>
    <connection from=":J7_0" to="E4" fromLane="0" toLane="0" dir="s" state="M"/>
    <connection from=":J8_0" to="E5" fromLane="0" toLane="0" dir="r" state="M"/>
    <connection from=":J9_0" to="E6" fromLane="0" toLane="0" dir="s" state="M"/>

</net>
